Version 4
SHEET 1 1916 1040
WIRE 384 -128 272 -128
WIRE 416 -128 384 -128
WIRE 544 -128 480 -128
WIRE 656 -128 544 -128
WIRE 720 -128 656 -128
WIRE 1072 -128 976 -128
WIRE 1360 -128 1072 -128
WIRE 1504 -128 1360 -128
WIRE 1728 -128 1504 -128
WIRE 1072 -96 1072 -128
WIRE 416 -32 400 -32
WIRE 544 -32 544 -128
WIRE 544 -32 480 -32
WIRE 848 16 848 -32
WIRE 1072 16 1072 -16
WIRE 1072 16 848 16
WIRE 1072 48 1072 16
WIRE 1360 48 1360 -128
WIRE 1504 48 1504 -128
WIRE 144 64 -48 64
WIRE 544 64 544 -32
WIRE 656 64 656 -128
WIRE 848 64 848 16
WIRE 272 96 272 -128
WIRE -48 144 -48 64
WIRE 144 144 144 64
WIRE 272 192 272 176
WIRE 544 192 544 128
WIRE 544 192 272 192
WIRE 656 192 656 128
WIRE 656 192 544 192
WIRE 848 192 848 128
WIRE 848 192 656 192
WIRE 1072 192 1072 128
WIRE 1072 192 848 192
WIRE 1360 192 1360 112
WIRE 1360 192 1072 192
WIRE 1504 192 1504 112
WIRE 1504 192 1360 192
WIRE 1728 192 1504 192
WIRE 272 208 272 192
WIRE 544 256 544 192
WIRE 656 256 656 192
WIRE 848 256 848 192
WIRE 1072 256 1072 192
WIRE 1360 272 1360 192
WIRE 1504 272 1504 192
WIRE -48 368 -48 224
WIRE 144 368 144 224
WIRE 848 368 848 320
WIRE 1072 368 1072 336
WIRE 1072 368 848 368
WIRE 1072 400 1072 368
WIRE 384 416 384 -128
WIRE 432 416 384 416
WIRE 544 416 544 320
WIRE 544 416 496 416
WIRE 848 416 848 368
WIRE 272 512 272 288
WIRE 400 512 400 -32
WIRE 400 512 272 512
WIRE 432 512 400 512
WIRE 544 512 544 416
WIRE 544 512 496 512
WIRE 656 512 656 320
WIRE 656 512 544 512
WIRE 720 512 656 512
WIRE 1072 512 1072 480
WIRE 1072 512 976 512
WIRE 1152 512 1072 512
WIRE 1360 512 1360 336
WIRE 1360 512 1200 512
WIRE 1504 512 1504 336
WIRE 1504 512 1360 512
WIRE 1728 512 1504 512
WIRE 1152 528 1152 512
WIRE 1152 608 1152 576
WIRE 1200 608 1200 592
FLAG -48 368 0
FLAG 144 368 0
FLAG 1152 608 0
FLAG 1200 608 0
FLAG 1728 -128 +VDC
IOPIN 1728 -128 Out
FLAG 1728 512 -VDC
IOPIN 1728 512 Out
FLAG 1728 192 GND
IOPIN 1728 192 BiDir
SYMBOL voltage -48 128 R0
SYMATTR InstName V1
SYMBOL ind2 256 304 M180
WINDOW 0 36 80 Left 2
WINDOW 3 36 40 Left 2
SYMATTR InstName L1
SYMBOL ind2 256 192 M180
WINDOW 0 36 80 Left 2
WINDOW 3 36 40 Left 2
SYMATTR InstName L2
SYMBOL ind2 128 240 M180
WINDOW 0 36 80 Left 2
WINDOW 3 36 40 Left 2
SYMATTR InstName L3
SYMBOL diode 496 496 R90
WINDOW 0 0 32 VBottom 2
WINDOW 3 32 32 VTop 2
SYMATTR InstName D1
SYMBOL diode 496 400 R90
WINDOW 0 0 32 VBottom 2
WINDOW 3 32 32 VTop 2
SYMATTR InstName D2
SYMBOL diode 416 -16 R270
WINDOW 0 32 32 VTop 2
WINDOW 3 0 32 VBottom 2
SYMATTR InstName D3
SYMBOL diode 416 -112 R270
WINDOW 0 32 32 VTop 2
WINDOW 3 0 32 VBottom 2
SYMATTR InstName D4
SYMBOL cap 640 64 R0
SYMATTR InstName C1
SYMBOL cap 640 256 R0
SYMATTR InstName C2
SYMBOL polcap 528 64 R0
SYMATTR InstName C3
SYMBOL polcap 560 320 R180
WINDOW 0 24 57 Left 2
WINDOW 3 24 8 Left 2
SYMATTR InstName C4
SYMBOL polcap 1344 272 R0
SYMATTR InstName C5
SYMBOL polcap 1344 48 R0
SYMATTR InstName C6
SYMBOL cap 1488 272 R0
SYMATTR InstName C7
SYMBOL cap 1488 48 R0
SYMATTR InstName C8
SYMBOL PowerProducts\\LT317A 848 -128 R0
SYMATTR InstName U1
SYMBOL PowerProducts\\LT317A 848 512 M180
SYMATTR InstName U2
SYMBOL e 1200 496 R0
WINDOW 0 35 36 Left 2
SYMATTR InstName E3
SYMBOL res 1056 -112 R0
SYMATTR InstName R1
SYMBOL res 1056 32 R0
SYMATTR InstName R2
SYMBOL res 1056 384 R0
SYMATTR InstName R3
SYMBOL res 1056 240 R0
SYMATTR InstName R4
SYMBOL polcap 832 64 R0
SYMATTR InstName C9
SYMBOL polcap 864 320 R180
WINDOW 0 24 57 Left 2
WINDOW 3 24 8 Left 2
SYMATTR InstName C10
